# generated using pymatgen
data_Li11Ti4O12
_symmetry_space_group_name_H-M   'P 1'
_cell_length_a   5.10000000
_cell_length_b   8.85270000
_cell_length_c   9.83460000
_cell_angle_alpha   90.00000000
_cell_angle_beta   100.20559700
_cell_angle_gamma   90.00000000
_symmetry_Int_Tables_number   1
_chemical_formula_structural   Li11Ti4O12
_chemical_formula_sum   'Li22 Ti8 O24'
_cell_volume   436.99494275
_cell_formula_units_Z   2
loop_
 _symmetry_equiv_pos_site_id
 _symmetry_equiv_pos_as_xyz
  1  'x, y, z'
loop_
 _atom_type_symbol
 _atom_type_oxidation_number
  Li+  1.0
  Ti4+  4.0
  O2-  -2.0
loop_
 _atom_site_type_symbol
 _atom_site_label
 _atom_site_symmetry_multiplicity
 _atom_site_fract_x
 _atom_site_fract_y
 _atom_site_fract_z
 _atom_site_occupancy
  Li+  Li0  1  0.23984000  0.07983000  0.99962000  1.0
  Li+  Li1  1  0.73984000  0.57983000  0.99962000  1.0
  Li+  Li2  1  0.76016000  0.92017000  0.00038000  1.0
  Li+  Li3  1  0.26016000  0.42017000  0.00038000  1.0
  Li+  Li4  1  0.50000000  0.58434000  0.25000000  1.0
  Li+  Li5  1  0.00000000  0.08434000  0.25000000  1.0
  Li+  Li6  1  0.50000000  0.41566000  0.75000000  1.0
  Li+  Li7  1  0.00000000  0.91566000  0.75000000  1.0
  Li+  Li8  1  0.25000000  0.75000000  0.00000000  1.0
  Li+  Li9  1  0.75000000  0.25000000  0.00000000  1.0
  Li+  Li10  1  0.55880000  0.25210000  0.43750000  1
  Li+  Li11  1  0.55880000  0.57980000  0.43750000  1
  Li+  Li12  1  0.43750000  0.07980000  0.56250000  1
  Li+  Li13  1  0.05880000  0.07980000  0.43750000  1
  Li+  Li14  1  0.93750000  0.57980000  0.56250000  1
  Li+  Li15  1  0.23984000  0.92017000  0.49962000  1
  Li+  Li16  1  0.44120000  0.74790000  0.56250000  1
  Li+  Li17  1  0.44120000  0.42020000  0.56250000  1
  Li+  Li18  1  0.94120000  0.24790000  0.56250000  1
  Li+  Li19  1  0.94120000  0.92020000  0.56250000  1
  Li+  Li20  1  0.06250000  0.42020000  0.43750000  1
  Li+  Li21  1  0.75000000  0.75000000  0.50000000  1
  Ti4+  Ti22  1  0.50000000  0.91742000  0.25000000  1.0
  Ti4+  Ti23  1  0.00000000  0.41742000  0.25000000  1.0
  Ti4+  Ti24  1  0.50000000  0.08258000  0.75000000  1.0
  Ti4+  Ti25  1  0.00000000  0.58258000  0.75000000  1.0
  Ti4+  Ti26  1  0.50000000  0.75039000  0.75000000  1.0
  Ti4+  Ti27  1  0.00000000  0.25039000  0.75000000  1.0
  Ti4+  Ti28  1  0.50000000  0.24961000  0.25000000  1.0
  Ti4+  Ti29  1  0.00000000  0.74961000  0.25000000  1.0
  O2-  O30  1  0.60526000  0.91550000  0.63696000  1.0
  O2-  O31  1  0.13929000  0.09395000  0.63444000  1.0
  O2-  O32  1  0.64056000  0.76351000  0.13690000  1.0
  O2-  O33  1  0.10526000  0.41550000  0.63696000  1.0
  O2-  O34  1  0.63929000  0.59395000  0.63444000  1.0
  O2-  O35  1  0.14056000  0.26351000  0.13690000  1.0
  O2-  O36  1  0.39474000  0.91550000  0.86304000  1.0
  O2-  O37  1  0.86071000  0.09395000  0.86556000  1.0
  O2-  O38  1  0.35944000  0.76351000  0.36310000  1.0
  O2-  O39  1  0.89474000  0.41550000  0.86304000  1.0
  O2-  O40  1  0.36071000  0.59395000  0.86556000  1.0
  O2-  O41  1  0.85944000  0.26351000  0.36310000  1.0
  O2-  O42  1  0.39474000  0.08450000  0.36304000  1.0
  O2-  O43  1  0.86071000  0.90605000  0.36556000  1.0
  O2-  O44  1  0.35944000  0.23649000  0.86310000  1.0
  O2-  O45  1  0.89474000  0.58450000  0.36304000  1.0
  O2-  O46  1  0.36071000  0.40605000  0.36556000  1.0
  O2-  O47  1  0.85944000  0.73649000  0.86310000  1.0
  O2-  O48  1  0.60526000  0.08450000  0.13696000  1.0
  O2-  O49  1  0.13929000  0.90605000  0.13444000  1.0
  O2-  O50  1  0.64056000  0.23649000  0.63690000  1.0
  O2-  O51  1  0.10526000  0.58450000  0.13696000  1.0
  O2-  O52  1  0.63929000  0.40605000  0.13444000  1.0
  O2-  O53  1  0.14056000  0.73649000  0.63690000  1.0
